tests/data/power_flow/generic_branch/input.json
{
  "version": "1.0",
  "type": "input",
  "is_batch": false,
  "attributes": {},
  "data": {
    "node": [
      {
        "id": 1,
        "u_rated": 380000.0
      },
      {
        "id": 2,
        "u_rated": 400000.0
      }
    ],
    "generic_branch": [
      {
        "id": 3,
        "from_node": 1,
        "to_node": 2,
        "from_status": 1,
        "to_status": 1,
        "r1": 0.1,
        "x1": 0.25,
        "b1": 0.0,
        "g1": 0.0,
        "shift": 0.0,
        "k": 1.0526,
        "sn": 10000.0
      }
    ],
    "source": [
      {
        "id": 4,
        "node": 2,
        "status": 1,
        "u_ref": 1.0,
        "sk": 10000000000.0,
        "rx_ratio": 0.1,
        "z01_ratio": 1.0
      }
    ],
    "sym_load": [
      {
        "id": 5,
        "node": 1,
        "status": 1,
        "type": 0,
        "p_specified": 100000.0,
        "q_specified": 2000.0
      }
    ]
  }
}
