tests/data/power_flow/generic_branch/sym_output.json
{
  "version": "1.0",
  "type": "sym_output",
  "is_batch": false,
  "attributes": {},
  "data": {
    "generic_branch": [
      {
        "id": 3,
        "loading": 10.0020004568048,
        "p_from": -99999.99995000768,
        "q_from": -2000.000137358941,
        "i_from": 0.1443709448466696,
        "s_from": 100019.9979531642,
        "p_to": 100000.0062544732,
        "q_to": 2000.015724351825,
        "i_to": 0.1443666137920139,
        "s_to": 100020.004568048
      }
    ],
    "node": [
      {
        "id": 1,
        "u_pu": 1.0526,
        "u": 399987.4961262838,
        "u_angle": 0.0
      },
      {
        "id": 2,
        "u_pu": 0.9999988059030125,
        "u": 399999.522361205,
        "u_angle": 0.0
      }
    ],
    "source": [
      {
        "id": 4,
        "p": 100000.0062544732,
        "q": 2000.015724351825,
        "i": 0.1443666137920139,
        "s": 100020.004568048
      }
    ],
    "sym_load": [
      {
        "id": 5,
        "p": 99999.99999999999,
        "q": 2000.0
      }
    ]
  }
}
